Project directory = None

Output directory = /home/zach/Documents/School/Boulder/Graduate/Regueiro/Overleaf/ARL-TR-2022/report/report-figures/Eringen/lumped/

Simulation A directory = /home/zach/Documents/School/Boulder/Graduate/Regueiro/Code/Python/output/Eringen/analytical/25/

Simulation B directory = /home/zach/Documents/School/Boulder/Graduate/Regueiro/Code/LS-DYNA/neoHookean-umat/neoHookean-Eringen-20el-lumped/

Simulation C directory = /home/zach/Documents/School/Boulder/Graduate/Regueiro/Code/Python/output/Eringen/coarse/CD-L/

Simulation D directory = /home/zach/Documents/School/Boulder/Graduate/Regueiro/Code/Python/output/Eringen/coarse/RKBS-L/

Simulation E directory = /home/zach/Documents/School/Boulder/Graduate/Regueiro/Code/Python/output/Eringen/coarse/RKFNC-L/

Simulation A parameters = HEIGHT (m) : 20 ; ELEMENTS : 20 ; TYPE : Q2P1 ; FIELDS : 1 ; GAUSS POINT : 3 ; DRAINED : False ; LOCATION : Top-Bottom ; DISPLACEMENT : False ; SKIP : 1 ; DYNAMICS : True ; END-TIME (s) : Load

Simulation B parameters = HEIGHT (m) : 20 ; ELEMENTS : 20 ; TYPE : Q8 ; FIELDS : 1 ; GAUSS POINT : 3 ; DRAINED : False ; LOCATION : Top-Bottom ; DISPLACEMENT : False ; SKIP : 5 ; DYNAMICS : True ; END-TIME (s) : 0.4

Simulation C parameters = HEIGHT (m) : 20 ; ELEMENTS : 20 ; TYPE : Q2P1 ; FIELDS : 1 ; GAUSS POINT : 3 ; DRAINED : False ; LOCATION : Top ; DISPLACEMENT : False ; SKIP : 5 ; DYNAMICS : True ; END-TIME (s) : Load

Simulation D parameters = HEIGHT (m) : 20 ; ELEMENTS : 20 ; TYPE : Q2P1 ; FIELDS : 1 ; GAUSS POINT : 3 ; DRAINED : False ; LOCATION : Top ; DISPLACEMENT : False ; SKIP : 5 ; DYNAMICS : True ; END-TIME (s) : Load

Simulation E parameters = HEIGHT (m) : 20 ; ELEMENTS : 20 ; TYPE : Q2P1 ; FIELDS : 1 ; GAUSS POINT : 3 ; DRAINED : False ; LOCATION : Top ; DISPLACEMENT : False ; SKIP : 5 ; DYNAMICS : True ; END-TIME (s) : Load

Simulation A title = Analytical

Simulation B title = LS-DYNA

Simulation C title = Central-difference

Simulation D title = Runge-Kutta Bogacki-Shampine

Simulation E title = Runge-Kutta Cash-Karp

Locations = TOP : True ; MIDDLE : True ; BOTTOM : False

Type = CONTOUR : False ; Time (seconds) : 1e-3 ; Error (seconds) : 1e-4

Animations = ENABLED : False ; Points : True ; Type : PORE-FLUID-PRESSURE ; DELETE : False

Probe plotting = Height 1 (m) : 0.0 ; Height 2 (m) : 5.0 ; Height 3 (m) : 10.0 ; Height 4 (m) : 15.0

Scaling = TIME : 1 ; DISPLACEMENT : 1e3 ; STRESS/STRAIN : 1e-3
